Version 4
SHEET 1 880 680
WIRE 144 -64 -32 -64
WIRE 144 -16 144 -64
WIRE 224 0 224 -48
WIRE 224 0 192 0
WIRE 288 0 288 -64
WIRE 192 96 192 48
WIRE -32 128 -32 -64
WIRE 288 128 288 80
WIRE 144 192 144 64
WIRE 352 192 144 192
WIRE 560 192 432 192
WIRE 656 192 560 192
WIRE 688 192 656 192
WIRE 688 224 688 192
WIRE 560 240 560 192
WIRE 144 256 144 192
WIRE -32 368 -32 208
WIRE 144 368 144 320
WIRE 144 368 -32 368
WIRE 560 368 560 304
WIRE 560 368 144 368
WIRE 688 368 688 304
WIRE 688 368 560 368
WIRE 144 432 144 368
FLAG 144 432 0
FLAG 288 -64 VPulse
FLAG 224 -48 VPulse
FLAG 656 192 out
FLAG 192 96 0
FLAG 288 128 0
SYMBOL res 672 208 R0
SYMATTR InstName R1
SYMATTR Value {R}
SYMBOL cap 544 240 R0
SYMATTR InstName C1
SYMATTR Value {C}
SYMBOL ind 336 208 R270
WINDOW 0 32 56 VTop 2
WINDOW 3 5 56 VBottom 2
SYMATTR InstName L1
SYMATTR Value {L}
SYMBOL voltage -32 112 R0
WINDOW 123 0 0 Left 0
WINDOW 39 0 0 Left 0
SYMATTR InstName V1
SYMATTR Value 12
SYMBOL voltage 288 -16 R0
WINDOW 123 0 0 Left 0
WINDOW 39 0 0 Left 0
SYMATTR InstName V2
SYMATTR Value PULSE(0 10 0 1n 1n {D*Ts} {Ts})
SYMBOL diode 160 320 R180
WINDOW 0 24 64 Left 2
WINDOW 3 24 0 Left 2
SYMATTR InstName D1
SYMBOL sw 144 80 R180
SYMATTR InstName S1
SYMATTR Value ideal_sw
TEXT -64 520 Left 2 !.tran 5m
TEXT -792 264 Left 2 !.meas TRAN current_ripple PP I(L1) FROM 4m to4.5m\n.meas TRAN voltage_ripple PP V(out) FROM 4m to4.5m
TEXT -784 432 Left 2 !.inc paramTask1.txt
TEXT -784 112 Left 2 ;MUHAMMAD GHIYATS AR RAHMANIEY\n22/503896/TK/55089\nBUCK CONVERTER
